Circuit: * U:\Windows\Bureau\TPCapteursLTSpice\TP1Capteur.asc

Direct Newton iteration for .op point succeeded.

Date: Fri Jan 31 08:12:34 2025
Total elapsed time: 0.173 seconds.

tnom = 27
temp = 27
method = modified trap
totiter = 8354
traniter = 8332
tranpoints = 4167
accept = 2691
rejected = 1476
matrix size = 16
fillins = 5
solver = Normal
Avg thread counts: 1.2/1.3/1.3/1.2
Matrix Compiler1: 728 bytes object code size  0.4/0.3/[0.2]
Matrix Compiler2: 1.30 KB object code size  0.3/0.4/[0.2]

